/*--------------------------------*- C++ -*----------------------------------*\
  =========                 |
  \\      /  F ield         | OpenFOAM: The Open Source CFD Toolbox
   \\    /   O peration     | Website:  https://openfoam.org
    \\  /    A nd           | Version:  10
     \\/     M anipulation  |
\*---------------------------------------------------------------------------*/
FoamFile
{
  format ascii;
  class dictionary;
  location "constant";
  object momentumTransport;
}
// * * * * * * * * * * * * * * * * * * * * * * * * * * * * * * * * * * * * * //

simulationType LES;

LES
{
  model dynamicKEqn;
  turbulence on;
  printCoeffs on;
  delta cubeRootVol;

  dynamicKEqnCoeffs
  {
    filter simple;
  }

  cubeRootVolCoeffs
  {
    deltaCoeff 1;
  }
}


// ************************************************************************* //
